 75

 C                -10.69518900   -3.65168000    0.19042000
 C                 -9.34058000   -3.36096800    0.03354900
 C                 -8.89067500   -2.02337300    0.06299400
 C                 -9.83314800   -0.98990500    0.25333400
 C                -11.18565700   -1.29064200    0.40934400
 C                -11.62207100   -2.62007500    0.37869000
 H                -11.03093200   -4.69081200    0.16566500
 H                 -8.61479100   -4.16261900   -0.11348900
 H                 -9.48891900    0.04546600    0.27638100
 H                -11.90524500   -0.48203000    0.55586200
 H                -12.68237000   -2.85170000    0.50118100
 C                 -7.50579400   -1.72046400   -0.09698600
 C                 -6.32148000   -1.45904800   -0.23471000
 C                 -4.93738600   -1.15769100   -0.39360300
 C                 -3.99294400   -2.18979300   -0.59115000
 C                 -4.48875400    0.17432500   -0.34892500
 C                 -2.65091000   -1.87420200   -0.75498800
 H                 -4.32665400   -3.22762100   -0.62316100
 C                 -3.13604800    0.49541200   -0.50508500
 H                 -5.19180900    0.99281600   -0.19267900
 C                 -2.19642500   -0.54195700   -0.72572100
 H                 -1.91721400   -2.66552200   -0.91651700
 O                 -2.82788100    1.82523700   -0.49900300
 C                 -1.96243500    2.31845600    0.54881900
 H                 -0.96556700    1.86358600    0.45944800
 H                 -2.38842200    2.03852000    1.52947000
 C                 -1.86510000    3.82572300    0.39428800
 H                 -1.11802300    4.17543500    1.12663000
 H                 -2.82264900    4.29864500    0.67524800
 C                 -1.48706100    4.27042900   -1.02736900
 H                 -2.35207300    4.07210000   -1.67860200
 H                 -0.67700300    3.63174100   -1.42000900
 C                 -1.08498900    5.75558400   -1.11627800
 H                 -1.44498400    6.17262400   -2.07259800
 H                 -1.61844100    6.32069900   -0.32848400
 C                  0.42001200    6.06733500   -1.02702900
 H                  0.53213200    7.16275300   -1.10721200
 H                  0.92526300    5.65110600   -1.91903300
 C                  1.17696100    5.58952100    0.22930700
 H                  0.53295800    5.69162600    1.12218500
 H                  2.02980400    6.27087200    0.40369800
 C                  1.73777300    4.16334900    0.13916000
 H                  0.93860000    3.42364900   -0.01532400
 H                  2.38346000    4.10014400   -0.75728000
 C                  2.55581800    3.75784100    1.36900400
 H                  3.27903100    4.55521300    1.61933200
 H                  1.89795400    3.63894500    2.24733300
 C                  3.35416000    2.48017200    1.16866500
 H                  3.99343000    2.26570300    2.04476900
 H                  4.00717900    2.57864400    0.28104900
 O                  2.43384500    1.39875800    0.97644000
 C                  2.92325400    0.15654200    0.74827700
 C                  4.28580400   -0.12118400    0.57613500
 C                  1.98607100   -0.90959500    0.68243200
 C                  4.72982000   -1.43452500    0.31775700
 H                  5.02897000    0.67091900    0.63302700
 C                  2.44269700   -2.20956700    0.41701300
 C                  3.79357400   -2.48428400    0.23375700
 H                  1.70604400   -3.01242800    0.36182600
 H                  4.13451700   -3.49988700    0.03165700
 C                  6.12168800   -1.68873300    0.14255600
 C                  7.31298700   -1.90791600   -0.00844100
 C                  8.70469100   -2.16690800   -0.18556800
 C                  9.64602000   -1.11850900   -0.10118400
 C                  9.16210800   -3.47620400   -0.44823800
 C                 11.00502700   -1.37700700   -0.27518400
 H                  9.29606500   -0.10486500    0.10163000
 C                 10.52314500   -3.72475200   -0.62079700
 H                  8.43714300   -4.28924400   -0.51432100
 C                 11.44888200   -2.67858600   -0.53523300
 H                 11.72381100   -0.55733500   -0.20762600
 H                 10.86482300   -4.74216400   -0.82370100
 H                 12.51420700   -2.87723800   -0.67104700
 S                 -0.46497900   -0.21079800   -1.02716200
 S                  0.25678600   -0.63372900    1.00285700
