   11
 
 C     3.133000    -1.499000     0.000000
 H     3.173200    -2.144000    -0.880800
 H     3.173300    -2.143800     0.881000
 H     4.030600    -0.878500    -0.000200
 C    -1.861000     1.826700     0.000000
 H    -1.861000     2.483900     0.874000
 H    -1.861000     2.483800    -0.874000
 C    -3.133000     0.979600     0.000000
 H    -3.173300     0.334800     0.880900
 H    -4.030600     1.600100     0.000000
 H    -3.173300     0.334700    -0.880900
