           8

 C    0.76205013058780924        3.0477718676433031E-005   8.5198518931972791E-002
 H     1.2715875643371664        1.2622282133867367E-002 -0.89094226306867863     
 H     1.1017189014514892      -0.89539846965360803       0.62876995483854892     
 C   -0.76205013058780924       -3.0762442633521702E-005  -8.5198518931972791E-002
 H    -1.2715886385669046        1.2467974164998537E-002  0.89094289808133176     
 H    -1.1016418902919840      -0.89546148936765657      -0.62881512540527307     
 H     1.0992257200646445       0.88291741237583543       0.65040744477345203     
 H    -1.0993016517026393       0.88285568385418156      -0.65036290392760887     
