17

C    -1.63990    0.69530    -0.30720
C    0.42920    1.15150    0.36490
C    -1.63990    -0.69540    -0.30720
C    0.42920    -1.15150    0.36490
C    1.14410    0.70020    -0.75170
C    1.14410    -0.70020    -0.75170
H    0.38200    -2.19660    0.68100
C    0.36400    -0.00000    1.32520
H    1.51870    -1.33350    -1.55810
H    1.51870    1.33360    -1.55810
H    1.30040    -0.00000    1.92030
H    -0.48060    -0.00000    2.02660
H    0.38200    2.19660    0.68100
H    -1.59480    -1.24630    -1.24890
H    -2.09050    -1.24300    0.52550
H    -1.59480    1.24630    -1.24890
H    -2.09050    1.24300    0.52550
