          37

 S    -1.6215942837922102      -0.62368142653476943       -2.2007520145832542     
 O     1.2150707456441274        1.9499261618600643       -1.0223766399359835     
 O    -2.4130578501624389       0.32511240346550696        1.8022230210173755     
 O     4.2952375771554552       -2.1077260798480943        1.4223265370065599     
 O     5.8457212372434881       -2.1644590009525624      -0.18322400775757533     
 O    -4.9935898870779862       -1.3540985354844053       -1.3624747168440894     
 O    -6.5982704487592834       -1.6336604967108463       0.12897958488229408     
 N    -7.5833482851241904E-002  0.75779026899929558       0.36286679054414089     
 N     6.0719647586295311       0.67135740166336566      -0.14370231521054741     
 N    -3.7451108991712858       0.63831220013219969       -1.5847158628987581E-003
 C     3.6355536482918107       0.61406134116536426      -0.17616959768215135     
 C     2.3406282329811914       0.69450591595769062       0.68566062808166128     
 C    -1.3189511313498168        1.2991264884692952       -9.4260719429874046E-002
 C     4.9282336212003788        6.8938885401798405E-002  0.48535261455128131     
 C     1.1453786619509811        1.1628778663380972      -0.10698826883299437     
 C    -1.4579159618529982        1.1538622150960012       -1.5731372716339742     
 C    -2.5492784380369313       0.73800316020812085       0.66271856110540706     
 C     5.0714211645721132       -1.4845250596200910       0.49554305571642271     
 C    -4.8498186262719374       -2.9535054227409391E-002  0.69624497922536754     
 C    -5.6130587316370590       -1.0389459947999637      -0.21442543474258843     
 H     3.9069324725289052        1.6024158784431572      -0.54498532849057191     
 H     3.4325159171092494        1.2807597723072259E-002  -1.0203825750411133     
 H     1.9876207656827487      -0.28337265915849735        1.1200062311572152     
 H     2.5460211101551589        1.3117418728781780        1.5252886998356423     
 H    -1.2371071380125693        2.4512282799942144       0.10306919103315901     
 H     4.8394859170072442       0.18641144240624705        1.6018244040238323     
 H   -0.32901217495578827       0.17835794010375355        1.1982432455265890     
 H    -2.2676111555028133        1.7524991196248929       -1.9000792528182175     
 H   -0.62236460525197901        1.7192263448936116       -2.1301281903434437     
 H     5.9162046933112453       0.56797877529499230       -1.1245559920774946     
 H     6.9180303375516576       0.17036729844962809        3.8874038669901884E-002
 H    -3.6673885723467730       0.44978200617263497      -0.99085996185124381     
 H    -5.6734946021197450       0.69570191415040583        1.0362314055575448     
 H    -4.4161664691315252      -0.50811112194146968        1.6020517575751123     
 H   -0.78223496732850251       -1.0351147764113890       -1.2371307378387018     
 H     4.5173804169023972       -3.1321921475748202        1.4056589891867894     
 H    -5.5728621695968474       -2.1108654439867811       -1.6156529199605016     
