          17

 C    -1.3107433600041341       0.77435199258664811      -0.21190353236618609     
 C    0.13603285029420115        1.1201245950320895       0.29317366352624902     
 C    -1.3107365283263410      -0.77436105210049899      -0.21191265855636560     
 C    0.13604437101126010       -1.1201278759307973       0.29315792262093299     
 C     1.1113062801538767       0.67070698950712559      -0.77721911704958946     
 C     1.1113137150936900      -0.67068533557565468      -0.77722829827419893     
 H    0.25242736277977335       -2.1542927501925626       0.64608486072605198     
 C    0.33691817863106405       -7.9672181615551546E-006   1.3261901909605078     
 H     1.6123625801602748       -1.3305943794256039       -1.4890054190511999     
 H     1.6123474880262194        1.3306314165385962       -1.4889873688165354     
 H     1.3429518103233615       -5.5392786097028970E-006   1.7719109750735291     
 H   -0.42309927222074151       -1.7690429563011011E-005   2.1251959571254426     
 H    0.25240600465836338        2.1542855745495824       0.64611523549795880     
 H    -1.5169117168551409       -1.2078422372053181       -1.2014679484428274     
 H    -2.0588000818877661       -1.1803863115420470       0.48718661928426055     
 H    -1.5169192100044475        1.2078429304274645       -1.2014544226733164     
 H    -2.0588123640908313        1.1803629748270452       0.48719820032752154     
